/TITLE, CONTINUUM GROUND STRUCTURE
! Created with:       FlExtract v1.13
! Element type:       PLANE42
! Number of nodes:    1891
! Number of elements: 1800

/PREP7
! Element type: ET, type #, name
ET, 1, PLANE42, , , 3

! Nodal coordinates: 'N', node_id, x-coord, y-coord, z-coord
N,	1,	0,	0,	0
N,	2,	0,	0.166667,	0
N,	3,	0,	0.333333,	0
N,	4,	0,	0.5,	0
N,	5,	0,	0.666667,	0
N,	6,	0,	0.833333,	0
N,	7,	0,	1,	0
N,	8,	0,	1.16667,	0
N,	9,	0,	1.33333,	0
N,	10,	0,	1.5,	0
N,	11,	0,	1.66667,	0
N,	12,	0,	1.83333,	0
N,	13,	0,	2,	0
N,	14,	0,	2.16667,	0
N,	15,	0,	2.33333,	0
N,	16,	0,	2.5,	0
N,	17,	0,	2.66667,	0
N,	18,	0,	2.83333,	0
N,	19,	0,	3,	0
N,	20,	0,	3.16667,	0
! ... 1871 like lines cut

! Element connectivity: 'EN', element_id,  node_ids
! Material:             'MP', property_id, material_id, value 
! Custom property:      'R',  property_id, value 
! Material 1
MP,	EX,  	1,	1
MP,	EY,  	1,	0
MP,	GXY, 	1,	0
MP,	PRXY,	1,	0.3
MP,	DENS,	1,	1000
R, 	1,	1
! Connectivity
EN,	1,	1,	62,	63,	2
EN,	2,	2,	63,	64,	3
EN,	3,	3,	64,	65,	4
EN,	4,	4,	65,	66,	5
EN,	5,	5,	66,	67,	6
EN,	6,	6,	67,	68,	7
EN,	7,	7,	68,	69,	8
EN,	8,	8,	69,	70,	9
EN,	9,	9,	70,	71,	10
EN,	10,	10,	71,	72,	11
EN,	11,	11,	72,	73,	12
EN,	12,	12,	73,	74,	13
EN,	13,	13,	74,	75,	14
EN,	14,	14,	75,	76,	15
EN,	15,	15,	76,	77,	16
EN,	16,	16,	77,	78,	17
EN,	17,	17,	78,	79,	18
EN,	18,	18,	79,	80,	19
EN,	19,	19,	80,	81,	20
EN,	20,	20,	81,	82,	21
! ... 1780 like lines cut

! Nodal diplacement: 'D', node_id, 'UX / UY', value
D,	1,	UX,	0
D,	1,	UY,	0
D,	1831,	UY,	0

! Nodal load: 'F', node_id, 'FX / FY', value
F,	61,	FX,	0.1
F,	1891,	FY,	-0.1

! Surface load: 'SFE', element_id, face_id, 'PRES', 0, value

! Acceleration: 'ACEL', x-value, y-value, z-value
ACEL,	0.0,	0.0,	0.0

FINISH
