/TITLE, CONTINUUM GROUND STRUCTURE
! Created with:       FlExtract v1.13
! Element type:       PLANE42
! Number of nodes:    2034
! Number of elements: 1800

/PREP7
! Element type: ET, type #, name
ET, 1, PLANE42, , , 3

! Nodal coordinates: 'N', node_id, x-coord, y-coord, z-coord
N,	1,	0,	0,	0
N,	2,	0,	0.0444444,	0
N,	3,	0,	0.0888889,	0
N,	4,	0,	0.133333,	0
N,	5,	0,	0.177778,	0
N,	6,	0,	0.222222,	0
N,	7,	0,	0.266667,	0
N,	8,	0,	0.311111,	0
N,	9,	0,	0.355556,	0
N,	10,	0,	0.4,	0
N,	11,	0,	0.444444,	0
N,	12,	0,	0.488889,	0
N,	13,	0,	0.533333,	0
N,	14,	0,	0.577778,	0
N,	15,	0,	0.622222,	0
N,	16,	0,	0.666667,	0
N,	17,	0,	0.711111,	0
N,	18,	0,	0.755556,	0
N,	19,	0,	0.8,	0
N,	20,	0,	0.844444,	0
! ... 2014 like lines cut

! Element connectivity: 'EN', element_id,  node_ids
! Material:             'MP', property_id, material_id, value 
! Custom property:      'R',  property_id, value 
! Material 1
MP,	EX,  	1,	1
MP,	EY,  	1,	0
MP,	GXY, 	1,	0
MP,	PRXY,	1,	0.3
MP,	DENS,	1,	1000
R, 	1,	1
! Connectivity
EN,	1,	1,	227,	228,	2
EN,	2,	2,	228,	229,	3
EN,	3,	3,	229,	230,	4
EN,	4,	4,	230,	231,	5
EN,	5,	5,	231,	232,	6
EN,	6,	6,	232,	233,	7
EN,	7,	7,	233,	234,	8
EN,	8,	8,	234,	235,	9
EN,	9,	9,	235,	236,	10
EN,	10,	10,	236,	237,	11
EN,	11,	11,	237,	238,	12
EN,	12,	12,	238,	239,	13
EN,	13,	13,	239,	240,	14
EN,	14,	14,	240,	241,	15
EN,	15,	15,	241,	242,	16
EN,	16,	16,	242,	243,	17
EN,	17,	17,	243,	244,	18
EN,	18,	18,	244,	245,	19
EN,	19,	19,	245,	246,	20
EN,	20,	20,	246,	247,	21
! ... 1780 like lines cut

! Nodal diplacement: 'D', node_id, 'UX / UY', value
D,	1,	UX,	0
D,	1,	UY,	0
D,	1809,	UY,	0

! Nodal load: 'F', node_id, 'FX / FY', value
F,	226,	FX,	0.1
F,	2034,	FY,	-0.1

! Surface load: 'SFE', element_id, face_id, 'PRES', 0, value

! Acceleration: 'ACEL', x-value, y-value, z-value
ACEL,	0.0,	0.0,	0.0

FINISH
