/TITLE, CONTINUUM GROUND STRUCTURE
! Created with:       FlExtract v1.13
! Element type:       PLANE42
! Number of nodes:    2034
! Number of elements: 1800

/PREP7
! Element type: ET, type #, name
ET, 1, PLANE42, , , 3

! Nodal coordinates: 'N', node_id, x-coord, y-coord, z-coord
N,	1,	0,	0,	0
N,	2,	0,	1.25,	0
N,	3,	0,	2.5,	0
N,	4,	0,	3.75,	0
N,	5,	0,	5,	0
N,	6,	0,	6.25,	0
N,	7,	0,	7.5,	0
N,	8,	0,	8.75,	0
N,	9,	0,	10,	0
N,	10,	0.0888889,	0,	0
N,	11,	0.0888889,	1.25,	0
N,	12,	0.0888889,	2.5,	0
N,	13,	0.0888889,	3.75,	0
N,	14,	0.0888889,	5,	0
N,	15,	0.0888889,	6.25,	0
N,	16,	0.0888889,	7.5,	0
N,	17,	0.0888889,	8.75,	0
N,	18,	0.0888889,	10,	0
N,	19,	0.177778,	0,	0
N,	20,	0.177778,	1.25,	0
! ... 2014 like lines cut

! Element connectivity: 'EN', element_id,  node_ids
! Material:             'MP', property_id, material_id, value 
! Custom property:      'R',  property_id, value 
! Material 1
MP,	EX,  	1,	1
MP,	EY,  	1,	0
MP,	GXY, 	1,	0
MP,	PRXY,	1,	0.3
MP,	DENS,	1,	1000
R, 	1,	1
! Connectivity
EN,	1,	1,	10,	11,	2
EN,	2,	2,	11,	12,	3
EN,	3,	3,	12,	13,	4
EN,	4,	4,	13,	14,	5
EN,	5,	5,	14,	15,	6
EN,	6,	6,	15,	16,	7
EN,	7,	7,	16,	17,	8
EN,	8,	8,	17,	18,	9
EN,	9,	10,	19,	20,	11
EN,	10,	11,	20,	21,	12
EN,	11,	12,	21,	22,	13
EN,	12,	13,	22,	23,	14
EN,	13,	14,	23,	24,	15
EN,	14,	15,	24,	25,	16
EN,	15,	16,	25,	26,	17
EN,	16,	17,	26,	27,	18
EN,	17,	19,	28,	29,	20
EN,	18,	20,	29,	30,	21
EN,	19,	21,	30,	31,	22
EN,	20,	22,	31,	32,	23
! ... 1780 like lines cut

! Nodal diplacement: 'D', node_id, 'UX / UY', value
D,	1,	UX,	0
D,	1,	UY,	0
D,	2026,	UY,	0

! Nodal load: 'F', node_id, 'FX / FY', value
F,	9,	FX,	0.1
F,	2034,	FY,	-0.1

! Surface load: 'SFE', element_id, face_id, 'PRES', 0, value

! Acceleration: 'ACEL', x-value, y-value, z-value
ACEL,	0.0,	0.0,	0.0

FINISH
